/batch
/config,noeldb,1     ! force off writing results to database
*get,_wallstrt,active,,time,wall
! ANSYS input file written by Workbench version 2023 R2
! File used for geometry attach: C:\Users\hanmu\AppData\Local\Temp\WB_hanmu_20256_2\wbnew_files\dp0\SYS\DM\SYS.agdb
/title,wbnew--Static Structural (A5)
! ****** Begin Custom Load Command Snippet ******
/COM, ACT Extensions:
/COM,     LSDYNA, 2023.2
/COM,     5f463412-bd3e-484b-87e7-cbc0a665e474, wbex
/COM,/COM,     ANSYSMotion, 2023.2
/COM,     20180725-3f81-49eb-9f31-41364844c769, wbex
/COM,
! ****** End   Custom Load Command Snippet ******
*DIM,_wb_ProjectScratch_dir,string,248
_wb_ProjectScratch_dir(1) = 'C:\Users\hanmu\AppData\Local\Temp\WB_hanmu_20256_2\_ProjectScratch\ScrA811\'
*DIM,_wb_SolverFiles_dir,string,248
_wb_SolverFiles_dir(1) = 'C:\Users\hanmu\AppData\Local\Temp\WB_hanmu_20256_2\wbnew_files\dp0\SYS\MECH\'
*DIM,_wb_userfiles_dir,string,248
_wb_userfiles_dir(1) = 'C:\Users\hanmu\AppData\Local\Temp\WB_hanmu_20256_2\wbnew_files\user_files\'
/com,--- Data in consistent NMM units. See Solving Units in the help system for more information.
/units,MPA
/nopr
/wb,file,start              !  signify a WB generated input file
/prep7
! Turn off shape checking because checks already performed inside WB mesher.
! See help system for more information.
SHPP,OFF,,NOWARN
/nolist
etcon,set             ! allow ANSYS to choose best KEYOP's for 180x elements, resets any applicable keyopt to MAPDL defaults
/com,*********** Nodes for the whole assembly ***********
nblock,3,,8001
(1i9,3e20.9e3)
        1     8.000000000E+00     0.000000000E+00     1.001500000E+01
        2     1.100000000E+01     0.000000000E+00     1.001500000E+01
        3     1.400000000E+01     0.000000000E+00     1.001500000E+01
        4     1.700000000E+01     0.000000000E+00     1.001500000E+01
        5     2.000000000E+01     0.000000000E+00     1.001500000E+01
        6     2.300000000E+01     0.000000000E+00     1.001500000E+01
        7     2.600000000E+01     0.000000000E+00     1.001500000E+01
        8     2.900000000E+01     0.000000000E+00     1.001500000E+01
        9     3.200000000E+01     0.000000000E+00     1.001500000E+01
       10     3.500000000E+01     0.000000000E+00     1.001500000E+01
       11     3.800000000E+01     0.000000000E+00     1.001500000E+01
       12     4.100000000E+01     0.000000000E+00     1.001500000E+01
       13     4.400000000E+01     0.000000000E+00     1.001500000E+01
       14     4.700000000E+01     0.000000000E+00     1.001500000E+01
       15     5.000000000E+01     0.000000000E+00     1.001500000E+01
       16     5.300000000E+01     0.000000000E+00     1.001500000E+01
       17     5.600000000E+01     0.000000000E+00     1.001500000E+01
       18     5.900000000E+01     0.000000000E+00     1.001500000E+01
       19     6.200000000E+01     0.000000000E+00     1.001500000E+01
       20     6.500000000E+01     0.000000000E+00     1.001500000E+01
! ... 7255 like lines cut
/wb,elem,start            !  set before creation of elements
/com,*********** Elements for Body 1 "Solid" ***********
et,1,186
keyo,1,2,1          ! set full integration on SOLID186
eblock,19,solid,,938
(19i9)
        1        1        1        1        0        0        0        0       20        0        1      766     1713      914      769      767     2160     1580      768
     4251     4741     4257     4250     4253     6255     4255     4252     4249     6452     4740     4254
        1        1        1        1        0        0        0        0       20        0        2      765     1777     1047      770      766     1713      914      769
     4248     5070     4259     4247     4251     4741     4257     4250     4246     6451     4739     4256
        1        1        1        1        0        0        0        0       20        0        3      764     1841     1180      771      765     1777     1047      770
     4245     5399     4261     4244     4248     5070     4259     4247     4243     6642     5069     4258
        1        1        1        1        0        0        0        0       20        0        4      763     1905     1313      772      764     1841     1180      771
     4242     5728     4263     4241     4245     5399     4261     4244     4240     6769     5398     4260
        1        1        1        1        0        0        0        0       20        0        5      762     1969     1446      773      763     1905     1313      772
     4239     6057     4265     4238     4242     5728     4263     4241     4237     6896     5727     4262
        1        1        1        1        0        0        0        0       20        0        6      761     2033     1579      774      762     1969     1446      773
     4236     6253     4266     4235     4239     6057     4265     4238     4234     7023     6056     4264
        1        1        1        1        0        0        0        0       20        0        7       64       65      199      200     2033     1579      774      761
     2351     2355     2692     2352     6253     4266     4235     4236     2353     2356     2693     2694
        1        1        1        1        0        0        0        0       20        0        8      913      914     1713     1714     1581     1580     2160     2159
     4735     4741     6450     4738     6254     6255     7274     6257     4737     4740     6452     6455
        1        1        1        1        0        0        0        0       20        0        9      913     1714     1713      914     1046     1778     1777     1047
     4738     6450     4741     4735     5068     6641     5070     5066     4736     6454     6451     4739
        1        1        1        1        0        0        0        0       20        0       10     1046     1778     1777     1047     1179     1842     1841     1180
     5068     6641     5070     5066     5397     6768     5399     5395     5067     6644     6642     5069
! ... 1857 like lines cut
!Material Id = {05DD6464-E939-40F5-8B2C-B99AFDE8737E}
/wb,elem,end               !  done creating elements
/com,*********** Send User Defined Coordinate System(s) ***********
csys,0
toffst,273.15,  ! Temperature offset from absolute zero
/com,*********** Set Reference Temperature ***********
tref,22.
/wb,mat,start              !  starting to send materials
/com,*********** Send Materials ***********
MP,EX,1,70000,	! tonne s^-2 mm^-1
MP,NUXY,1,0.35,
MP,UVID,1,d545c54a-dea1-4b0e-a483-52dc431a8d70

/wb,mat,end                !  done sending materials
!************************* Model Summary ********************
!Solid,	Aluminium,	matid,	1
!************************* End Model Summary ********************
! get the diagonal of the bounding box. Needed later for other things
*get,_xmin,node,,mnloc,x
*get,_ymin,node,,mnloc,y
*get,_zmin,node,,mnloc,z
*get,_xmax,node,,mxloc,x
*get,_ymax,node,,mxloc,y
*get,_zmax,node,,mxloc,z
_ASMDIAG=(_xmax-_xmin)*(_xmax-_xmin)+(_ymax-_ymin)*(_ymax-_ymin)+(_zmax-_zmin)*(_zmax-_zmin)
_ASMDIAG=SQRT(_ASMDIAG)
/wb,contact,start          !  starting to send contact
/wb,contact,end            !  done creating contacts
/golist
/wb,load,start             !  starting to send loads
/com,******* Constant Zero Displacement X *******
CMBLOCK,_DISPZEROUX,NODE,       15
(8i10)
       201       754       755       756       757       758       759       760
      2696      4221      4223      4225      4227      4229      4231
cmsel,s,_DISPZEROUX
d,all,ux,0
nsel,all
/com,******* Constant Zero Displacement Y *******
CMBLOCK,_DISPZEROUY,NODE,       30
(8i10)
       200       201       754       755       756       757       758       759
       760       761       762       763       764       765       766       767
      2694      2696      4221      4223      4225      4227      4229      4231
      4234      4237      4240      4243      4246      4249
cmsel,s,_DISPZEROUY
d,all,uy,0
nsel,all
/com,******* Constant Zero Displacement Z *******
CMBLOCK,_DISPZEROUZ,NODE,       30
(8i10)
       200       201       754       755       756       757       758       759
       760       761       762       763       764       765       766       767
      2694      2696      4221      4223      4225      4227      4229      4231
      4234      4237      4240      4243      4246      4249
cmsel,s,_DISPZEROUZ
d,all,uz,0
nsel,all
/com,*********** Define Force Using Surface Effect Elements ***********
local,12,0,0.,0.,0.,0.,0.,0.
csys,0
et,2,154
mat,2
eblock,10,,,28
(15i9)
     3097        2        2        2       12      289      271      300      299     2836     2837     2921     2895
     3098        2        2        2       12      290      277      271      289     2860     2835     2836     2894
     3099        2        2        2       12      291      283      277      290     2877     2859     2860     2897
     3100        2        2        2       12      298      297      283      291     2916     2878     2877     2899
     3101        2        2        2       12      271      272      301      300     2834     2841     2924     2837
     3102        2        2        2       12      277      278      272      271     2858     2840     2834     2835
     3103        2        2        2       12      283      284      278      277     2876     2863     2858     2859
     3104        2        2        2       12      297      296      284      283     2913     2881     2876     2878
     3105        2        2        2       12      272      273      302      301     2839     2845     2927     2841
     3106        2        2        2       12      278      279      273      272     2862     2844     2839     2840
     3107        2        2        2       12      284      285      279      278     2880     2866     2862     2863
     3108        2        2        2       12      296      295      285      284     2910     2884     2880     2881
     3109        2        2        2       12      273      274      303      302     2843     2849     2930     2845
     3110        2        2        2       12      279      280      274      273     2865     2848     2843     2844
     3111        2        2        2       12      285      286      280      279     2883     2869     2865     2866
     3112        2        2        2       12      295      294      286      285     2907     2887     2883     2884
     3113        2        2        2       12      274      275      304      303     2847     2853     2933     2849
     3114        2        2        2       12      280      281      275      274     2868     2852     2847     2848
     3115        2        2        2       12      286      287      281      280     2886     2872     2868     2869
     3116        2        2        2       12      294      293      287      286     2904     2890     2886     2887
! ... 9 like lines cut
esel,s,type,,2
keyop,2,2,1                ! Apply load in local coordinate system
keyop,2,7,1                ! Use original area so load is constant in large deformation
esel,all
/gst,on,on
fini
*get,_numnode,node,0,count
*get,_numelem,elem,0,count
*get, _MAXELEMNUM, elem, 0, NUM, MAX
*get, _MAXNODENUM, node, 0, NUM, MAX
*get, _MAXELEMTYPE, etyp, 0, NUM, MAX
*get, _MAXREALCONST, rcon, 0, NUM, MAX
/go
/wb,load,end               !  done creating loads
/com,--- Number of total nodes = %_numnode%
/com,--- Number of contact elements = 28
/com,--- Number of spring elements = 0
/com,--- Number of bearing elements = 0
/com,--- Number of solid elements = 938
/com,--- Number of condensed parts = 0
/com,--- Number of total elements = %_numelem%
*get,_wallbsol,active,,time,wall
/com,****************************************************************************
/com,*************************    SOLUTION       ********************************
/com,****************************************************************************
/solu
antype,0                   ! static analysis
_thickRatio=  0     ! Ratio of thick parts in the model
eqsl,sparse,,,,,1
cntr,print,1               ! print out contact info and also make no initial contact an error
cncheck,dmp		!	Enable program controlled contact splitting for distributed memory parallel run
dmpoption,emat,no             ! Don't combine emat file for DANSYS
dmpoption,esav,no             ! Don't combine esav file for DANSYS
nldiag,cont,iter           ! print out contact info each equilibrium iteration
rescontrol,,none                 ! Do not keep any restart files
/com,****************************************************
/com,******************* SOLVE FOR LS 1 OF 1 ****************
esel,s,type,,2
nsle
sfe,all,1,pres,1,0.
sfe,all,2,pres,1,2.93859211182953e-002
sfe,all,3,pres,1,0.
nsel,all
esel,all
/nopr
/gopr
nsub,1,1,1
time,1.
outres,erase
outres,all,none
outres,nsol,all,
outres,rsol,all
outres,eangl,all
outres,etmp,all
outres,veng,all
outres,strs,all,
outres,epel,all,
outres,eppl,all,
outres,cont,all,
! *********** WB SOLVE COMMAND ***********
! check interactive state
*get,ANSINTER_,active,,int
*if,ANSINTER_,ne,0,then
/eof
*endif
solve
/com *************** Write FE CONNECTORS ********* 
CEWRITE,file,ce,,INTE
/com,****************************************************
/com,*************** FINISHED SOLVE FOR LS 1 *************
*get,_wallasol,active,,time,wall
/nopr
*get,_numnode,node,0,count
*get,_numelem,elem,0,count
*get, _MAXELEMNUM, elem, 0, NUM, MAX
*get, _MAXNODENUM, node, 0, NUM, MAX,,,INTERNAL
*get, _MAXELEMTYPE, etyp, 0, NUM, MAX
*get, _MAXREALCONST, rcon, 0, NUM, MAX
*get,_NSOLTHREADS,active,0,ntfs
*get,_NSOLPROCESSES,active,0,npfs
/gopr
/post1
xmlo,ENCODING,ISO-8859-1
xmlo,parm
/xml,parm,xml
fini
/gopr
*get,_walldone,active,,time,wall
_preptime=(_wallbsol-_wallstrt)*3600
_solvtime=(_wallasol-_wallbsol)*3600
_posttime=(_walldone-_wallasol)*3600
_totaltim=(_walldone-_wallstrt)*3600
*get,_dlbratio,active,0,solu,dlbr
*get,_combtime,active,0,solu,comb
*get,_ssmode,active,0,solu,ssmm
*get,_ndofs,active,0,solu,ndof
*get,_sol_end_time,active,0,set,time
*if,_sol_end_time,eq,1.000000,then
/fclean				!clean distributed files
*endif
/com,--- Total number of nodes = %_numnode%
/com,--- Total number of elements = %_numelem%
/com,--- Element load balance ratio = %_dlbratio%
/com,--- Time to combine distributed files = %_combtime%
/com,--- Sparse memory mode = %_ssmode%
/com,--- Number of DOF = %_ndofs%
/wb,file,end               ! done with WB generated input
