/batch
/config,noeldb,1     ! force off writing results to database
*get,_wallstrt,active,,time,wall
! ANSYS input file written by Workbench version 2023 R2
! File used for geometry attach: C:\Users\hanmu\AppData\Local\Temp\WB_hanmu_18640_2\wbnew_files\dp0\SYS\DM\SYS.agdb
/title,wbnew--Static Structural (A5)
! ****** Begin Custom Load Command Snippet ******
/COM, ACT Extensions:
/COM,     LSDYNA, 2023.2
/COM,     5f463412-bd3e-484b-87e7-cbc0a665e474, wbex
/COM,/COM,     ANSYSMotion, 2023.2
/COM,     20180725-3f81-49eb-9f31-41364844c769, wbex
/COM,
! ****** End   Custom Load Command Snippet ******
*DIM,_wb_ProjectScratch_dir,string,248
_wb_ProjectScratch_dir(1) = 'C:\Users\hanmu\AppData\Local\Temp\WB_hanmu_18640_2\_ProjectScratch\Scr5944\'
*DIM,_wb_SolverFiles_dir,string,248
_wb_SolverFiles_dir(1) = 'C:\Users\hanmu\AppData\Local\Temp\WB_hanmu_18640_2\wbnew_files\dp0\SYS\MECH\'
*DIM,_wb_userfiles_dir,string,248
_wb_userfiles_dir(1) = 'C:\Users\hanmu\AppData\Local\Temp\WB_hanmu_18640_2\wbnew_files\user_files\'
/com,--- Data in consistent NMM units. See Solving Units in the help system for more information.
/units,MPA
/nopr
/wb,file,start              !  signify a WB generated input file
/prep7
! Turn off shape checking because checks already performed inside WB mesher.
! See help system for more information.
SHPP,OFF,,NOWARN
/nolist
etcon,set             ! allow ANSYS to choose best KEYOP's for 180x elements, resets any applicable keyopt to MAPDL defaults
/com,*********** Nodes for the whole assembly ***********
nblock,3,,16964
(1i9,3e20.9e3)
        1    -0.000000000E+00     1.280000000E+02     0.000000000E+00
        2    -0.000000000E+00     1.280000000E+02     6.000000000E+00
        3    -0.000000000E+00     1.320000000E+02     0.000000000E+00
        4    -0.000000000E+00     1.320000000E+02     6.000000000E+00
        5     0.000000000E+00     0.000000000E+00     0.000000000E+00
        6     0.000000000E+00     4.923076923E+00     0.000000000E+00
        7     0.000000000E+00     9.846153846E+00     0.000000000E+00
        8     0.000000000E+00     1.476923077E+01     0.000000000E+00
        9     0.000000000E+00     1.969230769E+01     0.000000000E+00
       10     0.000000000E+00     2.461538462E+01     0.000000000E+00
       11     0.000000000E+00     2.953846154E+01     0.000000000E+00
       12     0.000000000E+00     3.446153846E+01     0.000000000E+00
       13     0.000000000E+00     3.938461538E+01     0.000000000E+00
       14     0.000000000E+00     4.430769231E+01     0.000000000E+00
       15     0.000000000E+00     4.923076923E+01     0.000000000E+00
       16     0.000000000E+00     5.415384615E+01     0.000000000E+00
       17     0.000000000E+00     5.907692308E+01     0.000000000E+00
       18     0.000000000E+00     6.400000000E+01     0.000000000E+00
       19     0.000000000E+00     6.892307692E+01     0.000000000E+00
       20     0.000000000E+00     7.384615385E+01     0.000000000E+00
! ... 15403 like lines cut
/wb,elem,start            !  set before creation of elements
/com,*********** Elements for Body 1 "Solid" ***********
et,1,187
eblock,19,solid,,8739
(19i9)
        1        1        1        1        0        0        0        0       10        0        1      613     2462     2147     2445     6802    15033     6800     6801
    15421    15032
        1        1        1        1        0        0        0        0       10        0        2      613     2462      695     2147     6802     7298     6796     6800
    15033     7296
        1        1        1        1        0        0        0        0       10        0        3      831     2462     2147     2444     8361    15033     8358     8359
    15420    15031
        1        1        1        1        0        0        0        0       10        0        4      695     2147     2462     2444     7296    15033     7298     7297
    15031    15420
        1        1        1        1        0        0        0        0       10        0        5      245      613     2462      695     4063     6802     4067     4064
     6796     7298
        1        1        1        1        0        0        0        0       10        0        6      831     2147     2462     2445     8358    15033     8361     8360
    15032    15421
        1        1        1        1        0        0        0        0       10        0        7      695     2462     1604     2444     7298    13580     7294     7297
    15420    13579
        1        1        1        1        0        0        0        0       10        0        8      245     2462     1604      695     4067    13580     4066     4064
     7298     7294
        1        1        1        1        0        0        0        0       10        0        9      613     1603     2462     2445     6798    13576     6802     6801
    13575    15421
        1        1        1        1        0        0        0        0       10        0       10      245     2462      613     1603     4067     6802     4063     4065
    13576     6798
! ... 17459 like lines cut
!Material Id = {C12C4E56-C2BD-43CA-8164-E09123F0C1EA}
/wb,elem,end               !  done creating elements
/com,*********** Send User Defined Coordinate System(s) ***********
csys,0
toffst,273.15,  ! Temperature offset from absolute zero
/com,*********** Set Reference Temperature ***********
tref,22.
/wb,mat,start              !  starting to send materials
/com,*********** Send Materials ***********
Temperature = 'TEMP' ! Temperature
MP,DENS,1,2.77e-09,	! tonne mm^-3
MP,ALPX,1,2.3e-05,	! C^-1
MP,C,1,875000000,	! mm^2 s^-2 C^-1
MPTEMP,,,,,,,,
MPTEMP,1,-100
MPTEMP,2,0
MPTEMP,3,100
MPTEMP,4,200
MPDATA,KXX,1, ,114,144,165,175,	! tonne mm s^-3 C^-1
MPTEMP,,,,,,,,
MPTEMP,,,,,,,,
MPTEMP,1,0
MPTEMP,2,20
MPTEMP,3,100
MPDATA,RSVX,1, ,2.43e-05,2.67e-05,3.63e-05,	! ohm mm
MPTEMP,,,,,,,,
MP,EX,1,71000,	! tonne s^-2 mm^-1
MP,NUXY,1,0.33,
MP,MURX,1,1,
MP,UVID,1,7d806894-5e0b-4d24-b250-4399def3430d
MP,UMID,1,35d48138-be0c-4a97-839b-6fba81b9f834

/wb,mat,end                !  done sending materials
!************************* Model Summary ********************
!Solid,	Aluminum Alloy,	matid,	1
!************************* End Model Summary ********************
! get the diagonal of the bounding box. Needed later for other things
*get,_xmin,node,,mnloc,x
*get,_ymin,node,,mnloc,y
*get,_zmin,node,,mnloc,z
*get,_xmax,node,,mxloc,x
*get,_ymax,node,,mxloc,y
*get,_zmax,node,,mxloc,z
_ASMDIAG=(_xmax-_xmin)*(_xmax-_xmin)+(_ymax-_ymin)*(_ymax-_ymin)+(_zmax-_zmin)*(_zmax-_zmin)
_ASMDIAG=SQRT(_ASMDIAG)
/wb,contact,start          !  starting to send contact
/wb,contact,end            !  done creating contacts
/golist
/wb,load,start             !  starting to send loads
/com,*********** Fixed Supports ***********
CMBLOCK,_FIXEDSU,NODE,       83
(8i10)
       265       302       339       340       341       342       343       344
       345       346       347       348       349       350       351       352
       353       354      1643      1644      1645      1646      1647      1648
      1649      1650      4146      4147      4148      4367      4368      4586
      4587      4591      4592      4595      4596      4598      4601      4602
      4604      4607      4608      4611      4614      4615      4618      4622
      4623      4625      4628      4629      4632      4633      4634      4638
      4639      4642      4643      4645      4648      4649      4652      4655
      4656      4658      4661      4662      4664      4668      4669      4671
      4674      4675      4678      4679     13683     13686     13689     13692
     13695     13698     13702
cmsel,s,_FIXEDSU
d,all,all
nsel,all
/com,*********** Define Force Using Surface Effect Elements ***********
local,12,0,0.,0.,0.,0.,0.,0.
csys,0
et,2,154
mat,2
eblock,10,,,16
(15i9)
    12260        2        2        2       12      250      251      173      173     4084     3575      173     3574
    12261        2        2        2       12      167      255      256      256     3513     4106      256     3514
    12262        2        2        2       12      168      169      255      255     3522     3534      255     3523
    12263        2        2        2       12      170      254      169      169     3545     3533      169     3531
    12264        2        2        2       12      167      168      255      255     3512     3523      255     3513
    12265        2        2        2       12      169      254      255      255     3533     4102      255     3534
    12266        2        2        2       12      173      248      250      250     3573     4077      250     3574
    12267        2        2        2       12      170      171      253      253     3542     3556      253     3544
    12268        2        2        2       12      166      167      256      256     3504     3514      256     3508
    12269        2        2        2       12      166      256      249      249     3508     4080      249     3507
    12270        2        2        2       12      253      254      170      170     4097     3545      170     3544
    12271        2        2        2       12      253      171      252      252     3556     3555      252     4092
    12272        2        2        2       12      251      252      172      172     4088     3565      172     3564
    12273        2        2        2       12      172      252      171      171     3565     3555      171     3554
    12274        2        2        2       12      173      251      172      172     3575     3564      172     3563
    12275        2        2        2       12      143      248      173      173     3366     3573      173     3363
-1
esel,s,type,,2
keyop,2,2,1                ! Apply load in local coordinate system
keyop,2,7,1                ! Use original area so load is constant in large deformation
esel,all
/gst,on,on
fini
*get,_numnode,node,0,count
*get,_numelem,elem,0,count
*get, _MAXELEMNUM, elem, 0, NUM, MAX
*get, _MAXNODENUM, node, 0, NUM, MAX
*get, _MAXELEMTYPE, etyp, 0, NUM, MAX
*get, _MAXREALCONST, rcon, 0, NUM, MAX
/go
/wb,load,end               !  done creating loads
/com,--- Number of total nodes = %_numnode%
/com,--- Number of contact elements = 16
/com,--- Number of spring elements = 0
/com,--- Number of bearing elements = 0
/com,--- Number of solid elements = 8739
/com,--- Number of condensed parts = 0
/com,--- Number of total elements = %_numelem%
*get,_wallbsol,active,,time,wall
/com,****************************************************************************
/com,*************************    SOLUTION       ********************************
/com,****************************************************************************
/solu
antype,0                   ! static analysis
_thickRatio=  0     ! Ratio of thick parts in the model
eqsl,sparse,,,,,1
cntr,print,1               ! print out contact info and also make no initial contact an error
cncheck,dmp		!	Enable program controlled contact splitting for distributed memory parallel run
dmpoption,emat,no             ! Don't combine emat file for DANSYS
dmpoption,esav,no             ! Don't combine esav file for DANSYS
nldiag,cont,iter           ! print out contact info each equilibrium iteration
rescontrol,,none                 ! Do not keep any restart files
/com,****************************************************
/com,******************* SOLVE FOR LS 1 OF 1 ****************
esel,s,type,,2
nsle
sfe,all,1,pres,1,0.
sfe,all,2,pres,1,0.
sfe,all,3,pres,1,-0.147149999999956
nsel,all
esel,all
/nopr
/gopr
nsub,1,1,1
time,1.
outres,erase
outres,all,none
outres,nsol,all,
outres,rsol,all
outres,eangl,all
outres,etmp,all
outres,veng,all
outres,strs,all,
outres,epel,all,
outres,eppl,all,
outres,cont,all,
! *********** WB SOLVE COMMAND ***********
! check interactive state
*get,ANSINTER_,active,,int
*if,ANSINTER_,ne,0,then
/eof
*endif
solve
/com *************** Write FE CONNECTORS ********* 
CEWRITE,file,ce,,INTE
/com,****************************************************
/com,*************** FINISHED SOLVE FOR LS 1 *************
*get,_wallasol,active,,time,wall
/nopr
*get,_numnode,node,0,count
*get,_numelem,elem,0,count
*get, _MAXELEMNUM, elem, 0, NUM, MAX
*get, _MAXNODENUM, node, 0, NUM, MAX,,,INTERNAL
*get, _MAXELEMTYPE, etyp, 0, NUM, MAX
*get, _MAXREALCONST, rcon, 0, NUM, MAX
*get,_NSOLTHREADS,active,0,ntfs
*get,_NSOLPROCESSES,active,0,npfs
/gopr
/post1
xmlo,ENCODING,ISO-8859-1
xmlo,parm
/xml,parm,xml
fini
/gopr
*get,_walldone,active,,time,wall
_preptime=(_wallbsol-_wallstrt)*3600
_solvtime=(_wallasol-_wallbsol)*3600
_posttime=(_walldone-_wallasol)*3600
_totaltim=(_walldone-_wallstrt)*3600
*get,_dlbratio,active,0,solu,dlbr
*get,_combtime,active,0,solu,comb
*get,_ssmode,active,0,solu,ssmm
*get,_ndofs,active,0,solu,ndof
*get,_sol_end_time,active,0,set,time
*if,_sol_end_time,eq,1.000000,then
/fclean				!clean distributed files
*endif
/com,--- Total number of nodes = %_numnode%
/com,--- Total number of elements = %_numelem%
/com,--- Element load balance ratio = %_dlbratio%
/com,--- Time to combine distributed files = %_combtime%
/com,--- Sparse memory mode = %_ssmode%
/com,--- Number of DOF = %_ndofs%
/wb,file,end               ! done with WB generated input
